ModelCases/IEEE118_PCM_1month_case/output_tmp_check/power_price_decomposition_nodal.csv
Bus,Zone,State,Hour,LMP,Energy,Congestion,Loss
1,B1,TS,1,20.0,20.0,0.0,0.0
1,B1,TS,2,20.0,20.0,0.0,0.0
1,B1,TS,3,20.0,20.0,0.0,0.0
1,B1,TS,4,20.0,20.0,0.0,0.0
1,B1,TS,5,20.0,20.0,0.0,0.0
1,B1,TS,6,20.0,20.0,0.0,0.0
1,B1,TS,7,20.0,20.0,0.0,0.0
1,B1,TS,8,20.0,20.0,0.0,0.0
1,B1,TS,9,20.0,20.0,0.0,0.0
1,B1,TS,10,20.0,20.0,0.0,0.0
1,B1,TS,11,20.0,20.0,0.0,0.0
1,B1,TS,12,20.0,20.0,0.0,0.0
1,B1,TS,13,20.0,20.0,0.0,0.0
1,B1,TS,14,20.0,20.0,0.0,0.0
1,B1,TS,15,20.0,20.0,0.0,0.0
1,B1,TS,16,20.0,20.0,0.0,0.0
1,B1,TS,17,20.0,20.0,0.0,0.0
1,B1,TS,18,20.0,20.0,0.0,0.0
1,B1,TS,19,20.0,20.0,0.0,0.0
1,B1,TS,20,20.0,20.0,0.0,0.0
1,B1,TS,21,20.0,20.0,0.0,0.0
1,B1,TS,22,20.0,20.0,0.0,0.0
1,B1,TS,23,20.0,20.0,0.0,0.0
1,B1,TS,24,20.0,20.0,0.0,0.0
1,B1,TS,25,20.0,20.0,0.0,0.0
1,B1,TS,26,20.0,20.0,0.0,0.0
1,B1,TS,27,20.0,20.0,0.0,0.0
1,B1,TS,28,20.0,20.0,0.0,0.0
1,B1,TS,29,20.0,20.0,0.0,0.0
1,B1,TS,30,20.0,20.0,0.0,0.0
1,B1,TS,31,20.0,20.0,0.0,0.0
1,B1,TS,32,20.0,20.0,0.0,0.0
1,B1,TS,33,20.0,20.0,0.0,0.0
1,B1,TS,34,20.0,20.0,0.0,0.0
1,B1,TS,35,20.0,20.0,0.0,0.0
1,B1,TS,36,20.0,20.0,0.0,0.0
1,B1,TS,37,20.0,20.0,0.0,0.0
1,B1,TS,38,20.0,20.0,0.0,0.0
1,B1,TS,39,20.0,20.0,0.0,0.0
1,B1,TS,40,20.0,20.0,0.0,0.0
1,B1,TS,41,20.0,20.0,0.0,0.0
1,B1,TS,42,20.0,20.0,0.0,0.0
1,B1,TS,43,20.0,20.0,0.0,0.0
1,B1,TS,44,20.0,20.0,0.0,0.0
1,B1,TS,45,20.0,20.0,0.0,0.0
1,B1,TS,46,20.0,20.0,0.0,0.0
1,B1,TS,47,20.0,20.0,0.0,0.0
1,B1,TS,48,20.0,20.0,0.0,0.0
1,B1,TS,49,20.0,20.0,0.0,0.0
1,B1,TS,50,20.0,20.0,0.0,0.0
1,B1,TS,51,20.0,20.0,0.0,0.0
1,B1,TS,52,20.0,20.0,0.0,0.0
1,B1,TS,53,20.0,20.0,0.0,0.0
1,B1,TS,54,20.0,20.0,0.0,0.0
1,B1,TS,55,20.0,20.0,0.0,0.0
1,B1,TS,56,20.0,20.0,0.0,0.0
1,B1,TS,57,20.0,20.0,0.0,0.0
1,B1,TS,58,20.0,20.0,0.0,0.0
1,B1,TS,59,20.0,20.0,0.0,0.0
1,B1,TS,60,20.0,20.0,0.0,0.0
1,B1,TS,61,20.0,20.0,0.0,0.0
1,B1,TS,62,20.0,20.0,0.0,0.0
1,B1,TS,63,20.0,20.0,0.0,0.0
1,B1,TS,64,20.0,20.0,0.0,0.0
1,B1,TS,65,20.0,20.0,0.0,0.0
1,B1,TS,66,20.0,20.0,0.0,0.0
1,B1,TS,67,20.0,20.0,0.0,0.0
1,B1,TS,68,20.0,20.0,0.0,0.0
1,B1,TS,69,20.0,20.0,0.0,0.0
1,B1,TS,70,20.0,20.0,0.0,0.0
1,B1,TS,71,20.0,20.0,0.0,0.0
1,B1,TS,72,20.0,20.0,0.0,0.0
1,B1,TS,73,20.0,20.0,0.0,0.0
1,B1,TS,74,20.0,20.0,0.0,0.0
1,B1,TS,75,20.0,20.0,0.0,0.0
1,B1,TS,76,20.0,20.0,0.0,0.0
1,B1,TS,77,20.0,20.0,0.0,0.0
1,B1,TS,78,20.0,20.0,0.0,0.0
1,B1,TS,79,20.0,20.0,0.0,0.0
1,B1,TS,80,20.0,20.0,0.0,0.0
1,B1,TS,81,20.0,20.0,0.0,0.0
1,B1,TS,82,20.0,20.0,0.0,0.0
1,B1,TS,83,20.0,20.0,0.0,0.0
1,B1,TS,84,20.0,20.0,0.0,0.0
1,B1,TS,85,20.0,20.0,0.0,0.0
1,B1,TS,86,20.0,20.0,0.0,0.0
1,B1,TS,87,20.0,20.0,0.0,0.0
1,B1,TS,88,20.0,20.0,0.0,0.0
1,B1,TS,89,20.0,20.0,0.0,0.0
1,B1,TS,90,20.0,20.0,0.0,0.0
1,B1,TS,91,20.0,20.0,0.0,0.0
1,B1,TS,92,20.0,20.0,0.0,0.0
1,B1,TS,93,20.0,20.0,0.0,0.0
1,B1,TS,94,20.0,20.0,0.0,0.0
1,B1,TS,95,20.0,20.0,0.0,0.0
1,B1,TS,96,20.0,20.0,0.0,0.0
1,B1,TS,97,20.0,20.0,0.0,0.0
1,B1,TS,98,20.0,20.0,0.0,0.0
1,B1,TS,99,20.0,20.0,0.0,0.0
1,B1,TS,100,20.0,20.0,0.0,0.0
1,B1,TS,101,20.0,20.0,0.0,0.0
1,B1,TS,102,20.0,20.0,0.0,0.0
1,B1,TS,103,20.0,20.0,0.0,0.0
1,B1,TS,104,20.0,20.0,0.0,0.0
1,B1,TS,105,20.0,20.0,0.0,0.0
1,B1,TS,106,20.0,20.0,0.0,0.0
1,B1,TS,107,20.0,20.0,0.0,0.0
1,B1,TS,108,20.0,20.0,0.0,0.0
1,B1,TS,109,20.0,20.0,0.0,0.0
1,B1,TS,110,20.0,20.0,0.0,0.0
1,B1,TS,111,20.0,20.0,0.0,0.0
1,B1,TS,112,20.0,20.0,0.0,0.0
1,B1,TS,113,20.0,20.0,0.0,0.0
1,B1,TS,114,20.0,20.0,0.0,0.0
1,B1,TS,115,20.0,20.0,0.0,0.0
1,B1,TS,116,20.0,20.0,0.0,0.0
1,B1,TS,117,20.0,20.0,0.0,0.0
1,B1,TS,118,20.0,20.0,0.0,0.0
1,B1,TS,119,20.0,20.0,0.0,0.0
1,B1,TS,120,20.0,20.0,0.0,0.0
1,B1,TS,121,20.0,20.0,0.0,0.0
1,B1,TS,122,20.0,20.0,0.0,0.0
1,B1,TS,123,20.0,20.0,0.0,0.0
1,B1,TS,124,20.0,20.0,0.0,0.0
1,B1,TS,125,20.0,20.0,0.0,0.0
1,B1,TS,126,20.0,20.0,0.0,0.0
1,B1,TS,127,20.0,20.0,0.0,0.0
1,B1,TS,128,20.0,20.0,0.0,0.0
1,B1,TS,129,20.0,20.0,0.0,0.0
1,B1,TS,130,20.0,20.0,0.0,0.0
1,B1,TS,131,20.0,20.0,0.0,0.0
1,B1,TS,132,20.0,20.0,0.0,0.0
1,B1,TS,133,20.0,20.0,0.0,0.0
1,B1,TS,134,20.0,20.0,0.0,0.0
1,B1,TS,135,20.0,20.0,0.0,0.0
1,B1,TS,136,20.0,20.0,0.0,0.0
1,B1,TS,137,20.0,20.0,0.0,0.0
1,B1,TS,138,20.0,20.0,0.0,0.0
1,B1,TS,139,20.0,20.0,0.0,0.0
1,B1,TS,140,20.0,20.0,0.0,0.0
1,B1,TS,141,20.0,20.0,0.0,0.0
1,B1,TS,142,20.0,20.0,0.0,0.0
1,B1,TS,143,20.0,20.0,0.0,0.0
1,B1,TS,144,20.0,20.0,0.0,0.0
1,B1,TS,145,20.0,20.0,0.0,0.0
1,B1,TS,146,20.0,20.0,0.0,0.0
1,B1,TS,147,20.0,20.0,0.0,0.0
1,B1,TS,148,20.0,20.0,0.0,0.0
1,B1,TS,149,20.0,20.0,0.0,0.0
1,B1,TS,150,20.0,20.0,0.0,0.0
1,B1,TS,151,20.0,20.0,0.0,0.0
1,B1,TS,152,20.0,20.0,0.0,0.0
1,B1,TS,153,20.0,20.0,0.0,0.0
1,B1,TS,154,20.0,20.0,0.0,0.0
1,B1,TS,155,20.0,20.0,0.0,0.0
1,B1,TS,156,20.0,20.0,0.0,0.0
1,B1,TS,157,20.0,20.0,0.0,0.0
1,B1,TS,158,20.0,20.0,0.0,0.0
1,B1,TS,159,20.0,20.0,0.0,0.0
1,B1,TS,160,20.0,20.0,0.0,0.0
1,B1,TS,161,20.0,20.0,0.0,0.0
1,B1,TS,162,20.0,20.0,0.0,0.0
1,B1,TS,163,20.0,20.0,0.0,0.0
1,B1,TS,164,20.0,20.0,0.0,0.0
1,B1,TS,165,20.0,20.0,0.0,0.0
1,B1,TS,166,20.0,20.0,0.0,0.0
1,B1,TS,167,20.0,20.0,0.0,0.0
1,B1,TS,168,20.0,20.0,0.0,0.0
1,B1,TS,169,20.0,20.0,0.0,0.0
1,B1,TS,170,20.0,20.0,0.0,0.0
1,B1,TS,171,20.0,20.0,0.0,0.0
1,B1,TS,172,20.0,20.0,0.0,0.0
1,B1,TS,173,20.0,20.0,0.0,0.0
1,B1,TS,174,20.0,20.0,0.0,0.0
1,B1,TS,175,20.0,20.0,0.0,0.0
1,B1,TS,176,20.0,20.0,0.0,0.0
1,B1,TS,177,20.0,20.0,0.0,0.0
1,B1,TS,178,20.0,20.0,0.0,0.0
1,B1,TS,179,20.0,20.0,0.0,0.0
1,B1,TS,180,20.0,20.0,0.0,0.0
1,B1,TS,181,20.0,20.0,0.0,0.0
1,B1,TS,182,20.0,20.0,0.0,0.0
1,B1,TS,183,20.0,20.0,0.0,0.0
1,B1,TS,184,20.0,20.0,0.0,0.0
1,B1,TS,185,20.0,20.0,0.0,0.0
1,B1,TS,186,20.0,20.0,0.0,0.0
1,B1,TS,187,20.0,20.0,0.0,0.0
1,B1,TS,188,20.0,20.0,0.0,0.0
1,B1,TS,189,20.0,20.0,0.0,0.0
1,B1,TS,190,20.0,20.0,0.0,0.0
1,B1,TS,191,20.0,20.0,0.0,0.0
1,B1,TS,192,20.0,20.0,0.0,0.0
1,B1,TS,193,20.0,20.0,0.0,0.0
1,B1,TS,194,20.0,20.0,0.0,0.0
1,B1,TS,195,20.0,20.0,0.0,0.0
1,B1,TS,196,20.0,20.0,0.0,0.0
1,B1,TS,197,20.0,20.0,0.0,0.0
1,B1,TS,198,20.0,20.0,0.0,0.0
1,B1,TS,199,20.0,20.0,0.0,0.0
1,B1,TS,200,20.0,20.0,0.0,0.0
...
